   12
Si(001) surface test             
Si    1.219476    0.000000    9.264930
Si    6.459844    0.000000    9.987850
Si    1.800417    1.919830    8.404650
Si    5.878903    1.919830    8.404650
Si    3.839660    1.919830    7.155740
Si    0.000000    1.919830    6.900440
Si    3.839660    0.000000    5.743910
Si    0.000000    0.000000    5.597210
Si    1.919830    0.000000    4.321250
Si    5.759490    0.000000    4.321250
Si    1.919830    1.919830    2.963750
Si    5.759490    1.919830    2.963750
