   20
surf.txt             / bulk.txt            
Si    1.219476    0.000000    4.264930
Si    6.459844    0.000000    4.987850
Si    1.800417    1.919830    3.404650
Si    5.878903    1.919830    3.404650
Si    3.839660    1.919830    2.155740
Si    0.000000    1.919830    1.900440
Si    3.839660    0.000000    0.743910
Si    0.000000    0.000000    0.597210
Si    1.919830    0.000000   -0.678750
Si    5.759490    0.000000   -0.678750
Si    1.919830    1.919830   -2.036250
Si    5.759490    1.919830   -2.036250
Si    0.000000    1.919830   -3.393750
Si    3.839660    1.919830   -3.393750
Si    0.000000    0.000000   -4.751250
Si    3.839660    0.000000   -4.751250
Si    1.919830    0.000000   -6.108750
Si    5.759490    0.000000   -6.108750
Si    1.919830    1.919830   -7.466250
Si    5.759490    1.919830   -7.466250
